Circuit: * C:\Users\Vincent\Documents\Vincent Kammerl\Brake_Chopper\LTspice\Test.asc

Error on line 85 : .model m1:mint nmos(vto=3.5 kp=5.80e+01 nfs=660000000000 eta=1000  level=3 l=1e-4 w=1e-4 gamma=0 phi=0.6 lambda=0 is=1e-24  js=0 pb=0.8 pbsw=0.8 cj=0 cjsw=0 cgso=0 cgdo=0 cgbo=0  tox=1e-07 xj=0 ucrit=1e4 diomod=1 vfb=0 leta=0 weta=0  u0=600 temp=0 vdd=0 xpart=0 vmax=1000)
	* Unrecognized parameter "lambda" -- ignored
	* Unrecognized parameter "pbsw" -- ignored
	* Unrecognized parameter "ucrit" -- ignored
	* Unrecognized parameter "diomod" -- ignored
	* Unrecognized parameter "vfb" -- ignored
	* Unrecognized parameter "leta" -- ignored
	* Unrecognized parameter "weta" -- ignored
	* Unrecognized parameter "temp" -- ignored
	* Unrecognized parameter "vdd" -- ignored
	* Unrecognized parameter "xpart" -- ignored
Direct Newton iteration failed to find .op point.  (Use ".option noopiter" to skip.)
Starting Gmin stepping
Gmin = 10
Gmin = 1.07374
Gmin = 0.115292
Gmin = 0.0123794
Gmin = 0.00132923
Gmin = 0.000142725
Gmin = 1.5325e-005
Gmin = 1.6455e-006
Gmin = 1.76685e-007
Gmin = 1.89714e-008
vernier = 0.5
vernier = 0.25
vernier = 0.125
Gmin = 1.80899e-008
vernier = 0.166667
vernier = 0.222222
Gmin = 1.19501e-008
vernier = 0.296296
Gmin = 6.26965e-009
vernier = 0.395061
vernier = 0.526748
Gmin = 2.17224e-009
vernier = 0.702331
vernier = 0.936441
Gmin = 4.21918e-010
vernier = 1
Gmin = 4.76818e-011
Gmin = 5.11979e-012
Gmin = 5.49733e-013
Gmin = 0
Gmin stepping succeeded in finding the operating point.

Changing Tseed to 1e-008

Date: Tue Dec 06 15:38:28 2022
Total elapsed time: 0.110 seconds.

tnom = 27
temp = 27
method = modified trap
totiter = 2996
traniter = 2099
tranpoints = 1043
accept = 1042
rejected = 0
matrix size = 41
fillins = 48
solver = Normal
Thread vector: 6.4/4.9[2] 3.1/2.8[1] 1.2/1.2[1] 0.2/0.4[1]  2592/500
Matrix Compiler1: 4.06 KB object code size  0.8/0.4/[0.3]
Matrix Compiler2: 4.16 KB object code size  0.4/0.6/[0.3]

